dss/import/capas-pablo/Formato-interfaz/compl-pvsy-linegeom-loadsh-csv-gen-cap-xfmr/Load.dss
New Load.carga_idseta_2943 phases=3 bus1=x_2943.1.2.3.0 kv=0.38 kw=145.64501657521188 pf=0.9 status=variable model=1 CVRwatts=0.8 CVRvars=3.0 class=1 daily=334 conn=wye
New Load.carga_idseta_3012 phases=3 bus1=x_3012.1.2.3.0 kv=0.38 kw=72.00706915074633 pf=0.9 status=variable model=1 CVRwatts=0.8 CVRvars=3.0 class=1 daily=335 conn=wye
New Load.carga_idseta_2982 phases=3 bus1=x_2982.1.2.3.0 kv=0.38 kw=9.988182040111642 pf=0.9 status=variable model=1 CVRwatts=0.8 CVRvars=3.0 class=1 daily=333 conn=wye
New Load.carga_idseta_2986 phases=3 bus1=x_2986.1.2.3.0 kv=0.38 kw=54.13947216745365 pf=0.9 status=variable model=1 CVRwatts=0.8 CVRvars=3.0 class=1 daily=333 conn=wye
New Load.carga_idseta_205 phases=3 bus1=x_205.1.2.3.0 kv=0.38 kw=3.4671814775458443 pf=0.9 status=variable model=1 CVRwatts=0.8 CVRvars=3.0 class=1 daily=332 conn=wye
New Load.carga_idseta_1354 phases=3 bus1=x_1354.1.2.3.0 kv=0.38 kw=5.966610716355598 pf=0.9 status=variable model=1 CVRwatts=0.8 CVRvars=3.0 class=1 daily=332 conn=wye
New Load.carga_idseta_2073 phases=3 bus1=x_2073.1.2.3.0 kv=0.38 kw=5.305408933687292 pf=0.9 status=variable model=1 CVRwatts=0.8 CVRvars=3.0 class=1 daily=332 conn=wye
New Load.carga_idseta_828 phases=3 bus1=x_828.1.2.3.0 kv=0.38 kw=11.240424895014478 pf=0.9 status=variable model=1 CVRwatts=0.8 CVRvars=3.0 class=1 daily=333 conn=wye
New Load.carga_idseta_115 phases=3 bus1=x_115.1.2.3.0 kv=0.38 kw=21.736829812253053 pf=0.9 status=variable model=1 CVRwatts=0.8 CVRvars=3.0 class=1 daily=333 conn=wye
New Load.carga_idseta_1245 phases=3 bus1=x_1245.1.2.3.0 kv=0.38 kw=21.33594997450506 pf=0.9 status=variable model=1 CVRwatts=0.8 CVRvars=3.0 class=1 daily=332 conn=wye
New Load.carga_idseta_848 phases=3 bus1=x_848.1.2.3.0 kv=0.38 kw=15.513426813694617 pf=0.9 status=variable model=1 CVRwatts=0.8 CVRvars=3.0 class=1 daily=332 conn=wye
New Load.carga_idseta_1945 phases=3 bus1=x_1945.1.2.3.0 kv=0.38 kw=76.16926972363206 pf=0.9 status=variable model=1 CVRwatts=0.8 CVRvars=3.0 class=1 daily=332 conn=wye
New Load.carga_idseta_2970 phases=3 bus1=x_2970.1.2.3.0 kv=0.38 kw=6.303770817307852 pf=0.9 status=variable model=1 CVRwatts=0.8 CVRvars=3.0 class=1 daily=332 conn=wye
New Load.carga_idseta_2971 phases=3 bus1=x_2971.1.2.3.0 kv=0.38 kw=55.05934366088513 pf=0.9 status=variable model=1 CVRwatts=0.8 CVRvars=3.0 class=1 daily=332 conn=wye
New Load.carga_idseta_3002 phases=3 bus1=x_3002.1.2.3.0 kv=0.38 kw=29.435719613054204 pf=0.9 status=variable model=1 CVRwatts=0.8 CVRvars=3.0 class=1 daily=333 conn=wye
New Load.carga_idseta_1067 phases=3 bus1=x_1067.1.2.3.0 kv=0.38 kw=2.78606865524086 pf=0.9 status=variable model=1 CVRwatts=0.8 CVRvars=3.0 class=1 daily=333 conn=wye
New Load.carga_idseta_821 phases=3 bus1=x_821.1.2.3.0 kv=0.38 kw=37.987828631446384 pf=0.9 status=variable model=1 CVRwatts=0.8 CVRvars=3.0 class=1 daily=333 conn=wye
New Load.carga_idseta_210 phases=3 bus1=x_210.1.2.3.0 kv=0.38 kw=0.8516167130235002 pf=0.9 status=variable model=1 CVRwatts=0.8 CVRvars=3.0 class=1 daily=333 conn=wye
New Load.carga_idseta_784 phases=3 bus1=x_784.1.2.3.0 kv=0.38 kw=88.21558714959019 pf=0.9 status=variable model=1 CVRwatts=0.8 CVRvars=3.0 class=1 daily=333 conn=wye
New Load.carga_idseta_2960 phases=3 bus1=x_2960.1.2.3.0 kv=0.38 kw=1.188142672202141 pf=0.9 status=variable model=1 CVRwatts=0.8 CVRvars=3.0 class=1 daily=333 conn=wye
New Load.carga_idseta_646 phases=3 bus1=x_646.1.2.3.0 kv=0.38 kw=0.6181089046138307 pf=0.9 status=variable model=1 CVRwatts=0.8 CVRvars=3.0 class=1 daily=333 conn=wye
New Load.carga_idseta_2959 phases=3 bus1=x_2959.1.2.3.0 kv=0.38 kw=17.87937238901488 pf=0.9 status=variable model=1 CVRwatts=0.8 CVRvars=3.0 class=1 daily=333 conn=wye
New Load.carga_idseta_2956 phases=3 bus1=x_2956.1.2.3.0 kv=0.38 kw=1.9779484947642585 pf=0.9 status=variable model=1 CVRwatts=0.8 CVRvars=3.0 class=1 daily=333 conn=wye
New Load.carga_idseta_2088 phases=3 bus1=x_2088.1.2.3.0 kv=0.38 kw=14.23671071207315 pf=0.9 status=variable model=1 CVRwatts=0.8 CVRvars=3.0 class=1 daily=332 conn=wye
New Load.carga_idseta_560 phases=3 bus1=x_560.1.2.3.0 kv=0.38 kw=47.24702631676527 pf=0.9 status=variable model=1 CVRwatts=0.8 CVRvars=3.0 class=1 daily=332 conn=wye
New Load.carga_idseta_1638 phases=3 bus1=x_1638.1.2.3.0 kv=0.38 kw=9.83303180883484 pf=0.9 status=variable model=1 CVRwatts=0.8 CVRvars=3.0 class=1 daily=332 conn=wye
New Load.carga_idseta_2396 phases=3 bus1=x_2396.1.2.3.0 kv=0.38 kw=1.369190204434024 pf=0.9 status=variable model=1 CVRwatts=0.8 CVRvars=3.0 class=1 daily=332 conn=wye
New Load.carga_idseta_1951 phases=3 bus1=x_1951.1.2.3.0 kv=0.38 kw=1.5565040266427204 pf=0.9 status=variable model=1 CVRwatts=0.8 CVRvars=3.0 class=1 daily=332 conn=wye
New Load.carga_idseta_570 phases=3 bus1=x_570.1.2.3.0 kv=0.38 kw=27.594057223214776 pf=0.9 status=variable model=1 CVRwatts=0.8 CVRvars=3.0 class=1 daily=332 conn=wye
New Load.carga_idseta_2940 phases=3 bus1=x_2940.1.2.3.0 kv=0.38 kw=96.44305875966803 pf=0.9 status=variable model=1 CVRwatts=0.8 CVRvars=3.0 class=1 daily=335 conn=wye
New Load.carga_idseta_1594 phases=3 bus1=x_1594.1.2.3.0 kv=0.38 kw=144.58953542220652 pf=0.9 status=variable model=1 CVRwatts=0.8 CVRvars=3.0 class=1 daily=335 conn=wye
New Load.carga_idseta_1595 phases=3 bus1=x_1595.1.2.3.0 kv=0.38 kw=185.22655549514093 pf=0.9 status=variable model=1 CVRwatts=0.8 CVRvars=3.0 class=1 daily=335 conn=wye
New Load.carga_idseta_2937 phases=3 bus1=x_2937.1.2.3.0 kv=0.38 kw=186.90760521959749 pf=0.9 status=variable model=1 CVRwatts=0.8 CVRvars=3.0 class=1 daily=332 conn=wye
New Load.carga_idseta_2947 phases=3 bus1=x_2947.1.2.3.0 kv=0.38 kw=10.439011976102671 pf=0.9 status=variable model=1 CVRwatts=0.8 CVRvars=3.0 class=1 daily=332 conn=wye
New Load.carga_idseta_593 phases=3 bus1=x_593.1.2.3.0 kv=0.38 kw=14.346628250299966 pf=0.9 status=variable model=1 CVRwatts=0.8 CVRvars=3.0 class=1 daily=332 conn=wye
New Load.carga_idseta_2948 phases=3 bus1=x_2948.1.2.3.0 kv=0.38 kw=7.768302538595135 pf=0.9 status=variable model=1 CVRwatts=0.8 CVRvars=3.0 class=1 daily=332 conn=wye
New Load.carga_idseta_594 phases=3 bus1=x_594.1.2.3.0 kv=0.38 kw=15.919404851623655 pf=0.9 status=variable model=1 CVRwatts=0.8 CVRvars=3.0 class=1 daily=332 conn=wye
New Load.carga_idseta_859 phases=3 bus1=x_859.1.2.3.0 kv=0.38 kw=8.08362250260406 pf=0.9 status=variable model=1 CVRwatts=0.8 CVRvars=3.0 class=1 daily=332 conn=wye
New Load.carga_idseta_2074 phases=3 bus1=x_2074.1.2.3.0 kv=0.38 kw=1.1445761045792278 pf=0.9 status=variable model=1 CVRwatts=0.8 CVRvars=3.0 class=1 daily=332 conn=wye
New Load.carga_idseta_596 phases=3 bus1=x_596.1.2.3.0 kv=0.38 kw=1.25210413110546 pf=0.9 status=variable model=1 CVRwatts=0.8 CVRvars=3.0 class=1 daily=332 conn=wye
New Load.carga_idseta_1874 phases=3 bus1=x_1874.1.2.3.0 kv=0.38 kw=38.68471293518342 pf=0.9 status=variable model=1 CVRwatts=0.8 CVRvars=3.0 class=1 daily=332 conn=wye
New Load.carga_idseta_956 phases=3 bus1=x_956.1.2.3.0 kv=0.38 kw=10.622315990400647 pf=0.9 status=variable model=1 CVRwatts=0.8 CVRvars=3.0 class=1 daily=333 conn=wye
New Load.carga_idseta_2258 phases=3 bus1=x_2258.1.2.3.0 kv=0.38 kw=11.272043545159898 pf=0.9 status=variable model=1 CVRwatts=0.8 CVRvars=3.0 class=1 daily=332 conn=wye
New Load.carga_idseta_2286 phases=3 bus1=x_2286.1.2.3.0 kv=0.38 kw=30.241660082577678 pf=0.9 status=variable model=1 CVRwatts=0.8 CVRvars=3.0 class=1 daily=332 conn=wye
New Load.carga_idseta_582 phases=3 bus1=x_582.1.2.3.0 kv=0.38 kw=7.2521680112692195 pf=0.9 status=variable model=1 CVRwatts=0.8 CVRvars=3.0 class=1 daily=332 conn=wye
New Load.carga_idseta_2962 phases=3 bus1=x_2962.1.2.3.0 kv=0.38 kw=0.8012522837586694 pf=0.9 status=variable model=1 CVRwatts=0.8 CVRvars=3.0 class=1 daily=333 conn=wye
New Load.carga_idseta_957 phases=3 bus1=x_957.1.2.3.0 kv=0.38 kw=16.23337126895064 pf=0.9 status=variable model=1 CVRwatts=0.8 CVRvars=3.0 class=1 daily=333 conn=wye
New Load.carga_idseta_958 phases=3 bus1=x_958.1.2.3.0 kv=0.38 kw=12.42453841287543 pf=0.9 status=variable model=1 CVRwatts=0.8 CVRvars=3.0 class=1 daily=333 conn=wye
New Load.carga_idseta_2949 phases=3 bus1=x_2949.1.2.3.0 kv=0.38 kw=0.17856479466621772 pf=0.9 status=variable model=1 CVRwatts=0.8 CVRvars=3.0 class=1 daily=333 conn=wye
New Load.carga_idseta_2966 phases=3 bus1=x_2966.1.2.3.0 kv=0.38 kw=0.26097931528139523 pf=0.9 status=variable model=1 CVRwatts=0.8 CVRvars=3.0 class=1 daily=333 conn=wye
New Load.carga_idseta_2968 phases=3 bus1=x_2968.1.2.3.0 kv=0.38 kw=9.561206144557843 pf=0.9 status=variable model=1 CVRwatts=0.8 CVRvars=3.0 class=1 daily=333 conn=wye
New Load.carga_idseta_520 phases=3 bus1=x_520.1.2.3.0 kv=0.38 kw=63.139916177992376 pf=0.9 status=variable model=1 CVRwatts=0.8 CVRvars=3.0 class=1 daily=333 conn=wye
New Load.carga_idseta_644 phases=3 bus1=x_644.1.2.3.0 kv=0.38 kw=4.358812423647162 pf=0.9 status=variable model=1 CVRwatts=0.8 CVRvars=3.0 class=1 daily=333 conn=wye
New Load.carga_idseta_1046 phases=3 bus1=x_1046.1.2.3.0 kv=0.38 kw=5.597502843966552 pf=0.9 status=variable model=1 CVRwatts=0.8 CVRvars=3.0 class=1 daily=332 conn=wye
New Load.carga_idseta_2992 phases=3 bus1=x_2992.1.2.3.0 kv=0.38 kw=25.164473411413056 pf=0.9 status=variable model=1 CVRwatts=0.8 CVRvars=3.0 class=1 daily=332 conn=wye
New Load.carga_idseta_524 phases=3 bus1=x_524.1.2.3.0 kv=0.38 kw=17.233564601593258 pf=0.9 status=variable model=1 CVRwatts=0.8 CVRvars=3.0 class=1 daily=332 conn=wye
New Load.carga_idseta_1106 phases=3 bus1=x_1106.1.2.3.0 kv=0.38 kw=20.0367007775471 pf=0.9 status=variable model=1 CVRwatts=0.8 CVRvars=3.0 class=1 daily=332 conn=wye
New Load.carga_idseta_2950 phases=3 bus1=x_2950.1.2.3.0 kv=0.38 kw=10.561474450757553 pf=0.9 status=variable model=1 CVRwatts=0.8 CVRvars=3.0 class=1 daily=332 conn=wye
New Load.carga_idseta_2643 phases=3 bus1=x_2643.1.2.3.0 kv=0.38 kw=31.228002722344296 pf=0.9 status=variable model=1 CVRwatts=0.8 CVRvars=3.0 class=1 daily=332 conn=wye
New Load.carga_idseta_2967 phases=3 bus1=x_2967.1.2.3.0 kv=0.38 kw=3.9235782123571856 pf=0.9 status=variable model=1 CVRwatts=0.8 CVRvars=3.0 class=1 daily=332 conn=wye
New Load.carga_idseta_2973 phases=3 bus1=x_2973.1.2.3.0 kv=0.38 kw=14.951174710547448 pf=0.9 status=variable model=1 CVRwatts=0.8 CVRvars=3.0 class=1 daily=332 conn=wye
New Load.carga_idseta_2963 phases=3 bus1=x_2963.1.2.3.0 kv=0.38 kw=0.6982341329896976 pf=0.9 status=variable model=1 CVRwatts=0.8 CVRvars=3.0 class=1 daily=333 conn=wye
New Load.carga_idseta_2989 phases=3 bus1=x_2989.1.2.3.0 kv=0.38 kw=4.402308976194061 pf=0.9 status=variable model=1 CVRwatts=0.8 CVRvars=3.0 class=1 daily=333 conn=wye
New Load.carga_idseta_968 phases=3 bus1=x_968.1.2.3.0 kv=0.38 kw=61.66437575806721 pf=0.9 status=variable model=1 CVRwatts=0.8 CVRvars=3.0 class=1 daily=333 conn=wye
New Load.carga_idseta_1002 phases=3 bus1=x_1002.1.2.3.0 kv=0.38 kw=41.19757122975045 pf=0.9 status=variable model=1 CVRwatts=0.8 CVRvars=3.0 class=1 daily=332 conn=wye
New Load.carga_idseta_2957 phases=3 bus1=x_2957.1.2.3.0 kv=0.38 kw=1.5412350468759954 pf=0.9 status=variable model=1 CVRwatts=0.8 CVRvars=3.0 class=1 daily=332 conn=wye
New Load.carga_idseta_2988 phases=3 bus1=x_2988.1.2.3.0 kv=0.38 kw=0.5710932964393224 pf=0.9 status=variable model=1 CVRwatts=0.8 CVRvars=3.0 class=1 daily=332 conn=wye
New Load.carga_idseta_833 phases=3 bus1=x_833.1.2.3.0 kv=0.38 kw=19.779565423447373 pf=0.9 status=variable model=1 CVRwatts=0.8 CVRvars=3.0 class=1 daily=332 conn=wye
New Load.carga_idseta_523 phases=3 bus1=x_523.1.2.3.0 kv=0.38 kw=10.470840271954437 pf=0.9 status=variable model=1 CVRwatts=0.8 CVRvars=3.0 class=1 daily=332 conn=wye
New Load.carga_idseta_1356 phases=3 bus1=x_1356.1.2.3.0 kv=0.38 kw=2.440385527104976 pf=0.9 status=variable model=1 CVRwatts=0.8 CVRvars=3.0 class=1 daily=333 conn=wye
New Load.carga_idseta_1382 phases=3 bus1=x_1382.1.2.3.0 kv=0.38 kw=2.339656668575315 pf=0.9 status=variable model=1 CVRwatts=0.8 CVRvars=3.0 class=1 daily=333 conn=wye
New Load.carga_idseta_635 phases=3 bus1=x_635.1.2.3.0 kv=0.38 kw=0.4444491763084267 pf=0.9 status=variable model=1 CVRwatts=0.8 CVRvars=3.0 class=1 daily=332 conn=wye
New Load.carga_idseta_1355 phases=3 bus1=x_1355.1.2.3.0 kv=0.38 kw=71.36754596131064 pf=0.9 status=variable model=1 CVRwatts=0.8 CVRvars=3.0 class=1 daily=332 conn=wye
New Load.carga_idseta_1243 phases=3 bus1=x_1243.1.2.3.0 kv=0.38 kw=3.479129036048759 pf=0.9 status=variable model=1 CVRwatts=0.8 CVRvars=3.0 class=1 daily=332 conn=wye
New Load.carga_idseta_1543 phases=3 bus1=x_1543.1.2.3.0 kv=0.38 kw=45.28609743479888 pf=0.9 status=variable model=1 CVRwatts=0.8 CVRvars=3.0 class=1 daily=332 conn=wye
New Load.carga_idseta_2 phases=3 bus1=x_2.1.2.3.0 kv=0.38 kw=7.721782723194264 pf=0.9 status=variable model=1 CVRwatts=0.8 CVRvars=3.0 class=1 daily=333 conn=wye
New Load.carga_idseta_2978 phases=3 bus1=x_2978.1.2.3.0 kv=0.38 kw=3.2599521487781296 pf=0.9 status=variable model=1 CVRwatts=0.8 CVRvars=3.0 class=1 daily=333 conn=wye
New Load.carga_idseta_2724 phases=3 bus1=x_2724.1.2.3.0 kv=0.38 kw=0.785227238083496 pf=0.9 status=variable model=1 CVRwatts=0.8 CVRvars=3.0 class=1 daily=333 conn=wye
New Load.carga_idseta_2683 phases=3 bus1=x_2683.1.2.3.0 kv=0.38 kw=81.1215327230902 pf=0.9 status=variable model=1 CVRwatts=0.8 CVRvars=3.0 class=1 daily=332 conn=wye
New Load.carga_idseta_1352 phases=3 bus1=x_1352.1.2.3.0 kv=0.38 kw=166.16994118468438 pf=0.9 status=variable model=1 CVRwatts=0.8 CVRvars=3.0 class=1 daily=332 conn=wye
New Load.carga_idseta_1374 phases=3 bus1=x_1374.1.2.3.0 kv=0.38 kw=16.518694386129855 pf=0.9 status=variable model=1 CVRwatts=0.8 CVRvars=3.0 class=1 daily=332 conn=wye
New Load.carga_idseta_2977 phases=3 bus1=x_2977.1.2.3.0 kv=0.38 kw=7.785029120499215 pf=0.9 status=variable model=1 CVRwatts=0.8 CVRvars=3.0 class=1 daily=332 conn=wye
New Load.carga_idseta_2660 phases=3 bus1=x_2660.1.2.3.0 kv=0.38 kw=0.6666737644626402 pf=0.9 status=variable model=1 CVRwatts=0.8 CVRvars=3.0 class=1 daily=332 conn=wye
New Load.carga_idseta_2975 phases=3 bus1=x_2975.1.2.3.0 kv=0.38 kw=93.29485229147596 pf=0.9 status=variable model=1 CVRwatts=0.8 CVRvars=3.0 class=1 daily=332 conn=wye
New Load.carga_idseta_1353 phases=3 bus1=x_1353.1.2.3.0 kv=0.38 kw=26.61008020003172 pf=0.9 status=variable model=1 CVRwatts=0.8 CVRvars=3.0 class=1 daily=332 conn=wye
New Load.carga_idseta_1318 phases=3 bus1=x_1318.1.2.3.0 kv=0.38 kw=0.391879918895602 pf=0.9 status=variable model=1 CVRwatts=0.8 CVRvars=3.0 class=1 daily=332 conn=wye
New Load.carga_idseta_540 phases=3 bus1=x_540.1.2.3.0 kv=0.38 kw=4.411011574088104 pf=0.9 status=variable model=1 CVRwatts=0.8 CVRvars=3.0 class=1 daily=335 conn=wye
New Load.carga_idseta_541 phases=3 bus1=x_541.1.2.3.0 kv=0.38 kw=7.253757413641768 pf=0.9 status=variable model=1 CVRwatts=0.8 CVRvars=3.0 class=1 daily=335 conn=wye
New Load.carga_idseta_2395 phases=3 bus1=x_2395.1.2.3.0 kv=0.38 kw=3.696574600801806 pf=0.9 status=variable model=1 CVRwatts=0.8 CVRvars=3.0 class=1 daily=332 conn=wye
New Load.carga_idseta_2228 phases=3 bus1=x_2228.1.2.3.0 kv=0.38 kw=0.7192430218754646 pf=0.9 status=variable model=1 CVRwatts=0.8 CVRvars=3.0 class=1 daily=332 conn=wye
New Load.carga_idseta_651 phases=3 bus1=x_651.1.2.3.0 kv=0.38 kw=2.5113767973126686 pf=0.9 status=variable model=1 CVRwatts=0.8 CVRvars=3.0 class=1 daily=332 conn=wye
New Load.carga_idseta_31 phases=3 bus1=x_31.1.2.3.0 kv=0.38 kw=1.109621981981914 pf=0.9 status=variable model=1 CVRwatts=0.8 CVRvars=3.0 class=1 daily=335 conn=wye
New Load.carga_idseta_27 phases=3 bus1=x_27.1.2.3.0 kv=0.38 kw=7.497240179973801 pf=0.9 status=variable model=1 CVRwatts=0.8 CVRvars=3.0 class=1 daily=335 conn=wye
New Load.carga_idseta_805 phases=3 bus1=x_805.1.2.3.0 kv=0.38 kw=6.019179973768424 pf=0.9 status=variable model=1 CVRwatts=0.8 CVRvars=3.0 class=1 daily=332 conn=wye
New Load.carga_idseta_3020 phases=3 bus1=x_3020.1.2.3.0 kv=0.38 kw=60.98817619725451 pf=0.9 status=variable model=1 CVRwatts=0.8 CVRvars=3.0 class=1 daily=332 conn=wye
New Load.carga_idseta_2543 phases=3 bus1=x_2543.1.2.3.0 kv=0.38 kw=2.1051598082135694 pf=0.9 status=variable model=1 CVRwatts=0.8 CVRvars=3.0 class=1 daily=332 conn=wye
New Load.carga_idseta_1105 phases=3 bus1=x_1105.1.2.3.0 kv=0.38 kw=1.096785870567569 pf=0.9 status=variable model=1 CVRwatts=0.8 CVRvars=3.0 class=1 daily=332 conn=wye
New Load.carga_idseta_656 phases=3 bus1=x_656.1.2.3.0 kv=0.38 kw=18.322775720069973 pf=0.9 status=variable model=1 CVRwatts=0.8 CVRvars=3.0 class=1 daily=332 conn=wye
New Load.carga_idseta_204 phases=3 bus1=x_204.1.2.3.0 kv=0.38 kw=8.191246109598314 pf=0.9 status=variable model=1 CVRwatts=0.8 CVRvars=3.0 class=1 daily=332 conn=wye
New Load.carga_idseta_3001 phases=3 bus1=x_3001.1.2.3.0 kv=0.38 kw=39.7065159285867 pf=0.9 status=variable model=1 CVRwatts=0.8 CVRvars=3.0 class=1 daily=332 conn=wye
New Load.carga_idseta_3014 phases=3 bus1=x_3014.1.2.3.0 kv=0.38 kw=6.414671838695446 pf=0.9 status=variable model=1 CVRwatts=0.8 CVRvars=3.0 class=1 daily=335 conn=wye
New Load.carga_idseta_2898 phases=3 bus1=x_2898.1.2.3.0 kv=0.38 kw=19.49210716586724 pf=0.9 status=variable model=1 CVRwatts=0.8 CVRvars=3.0 class=1 daily=332 conn=wye
New Load.carga_idseta_2944 phases=3 bus1=x_2944.1.2.3.0 kv=0.38 kw=1.5302215522950586 pf=0.9 status=variable model=1 CVRwatts=0.8 CVRvars=3.0 class=1 daily=335 conn=wye
New Load.carga_idseta_2377 phases=3 bus1=x_2377.1.2.3.0 kv=0.38 kw=10.535322885306847 pf=0.9 status=variable model=1 CVRwatts=0.8 CVRvars=3.0 class=1 daily=333 conn=wye
New Load.carga_idseta_2583 phases=3 bus1=x_2583.1.2.3.0 kv=0.38 kw=0.8333023751090162 pf=0.9 status=variable model=1 CVRwatts=0.8 CVRvars=3.0 class=1 daily=333 conn=wye
New Load.carga_idseta_2549 phases=3 bus1=x_2549.1.2.3.0 kv=0.38 kw=0.23350780840966945 pf=0.9 status=variable model=1 CVRwatts=0.8 CVRvars=3.0 class=1 daily=333 conn=wye
New Load.carga_idseta_3010 phases=3 bus1=x_3010.1.2.3.0 kv=0.38 kw=4.411466145151303 pf=0.9 status=variable model=1 CVRwatts=0.8 CVRvars=3.0 class=1 daily=333 conn=wye
New Load.carga_idseta_1228 phases=3 bus1=x_1228.1.2.3.0 kv=0.38 kw=0.7188377631434921 pf=0.9 status=variable model=1 CVRwatts=0.8 CVRvars=3.0 class=1 daily=333 conn=wye
New Load.carga_idseta_104 phases=3 bus1=x_104.1.2.3.0 kv=0.38 kw=71.17867430464158 pf=0.9 status=variable model=1 CVRwatts=0.8 CVRvars=3.0 class=1 daily=333 conn=wye
New Load.carga_idseta_11 phases=3 bus1=x_11.1.2.3.0 kv=0.38 kw=7.330313750272169 pf=0.9 status=variable model=1 CVRwatts=0.8 CVRvars=3.0 class=1 daily=333 conn=wye
New Load.carga_idseta_42 phases=3 bus1=x_42.1.2.3.0 kv=0.38 kw=2.9653326489916667 pf=0.9 status=variable model=1 CVRwatts=0.8 CVRvars=3.0 class=1 daily=335 conn=wye
New Load.carga_idseta_2997 phases=3 bus1=x_2997.1.2.3.0 kv=0.38 kw=4.566506601163168 pf=0.9 status=variable model=1 CVRwatts=0.8 CVRvars=3.0 class=1 daily=335 conn=wye
New Load.carga_idseta_2930 phases=3 bus1=x_2930.1.2.3.0 kv=0.38 kw=62.63045708305624 pf=0.9 status=variable model=1 CVRwatts=0.8 CVRvars=3.0 class=1 daily=333 conn=wye
New Load.carga_idseta_1759 phases=3 bus1=x_1759.1.2.3.0 kv=0.38 kw=11.786398201167634 pf=0.9 status=variable model=1 CVRwatts=0.8 CVRvars=3.0 class=1 daily=333 conn=wye
New Load.carga_idseta_5006 phases=3 bus1=x_5006.1.2.3.0 kv=0.38 kw=20.521215633179175 pf=0.9 status=variable model=1 CVRwatts=0.8 CVRvars=3.0 class=1 daily=333 conn=wye
New Load.carga_idseta_5000 phases=3 bus1=x_5000.1.2.3.0 kv=0.38 kw=0.11904319644414518 pf=0.9 status=variable model=1 CVRwatts=0.8 CVRvars=3.0 class=1 daily=333 conn=wye
New Load.carga_idseta_5026 phases=3 bus1=x_5026.1.2.3.0 kv=0.38 kw=0.302186575588984 pf=0.9 status=variable model=1 CVRwatts=0.8 CVRvars=3.0 class=1 daily=333 conn=wye
New Load.carga_idseta_5007 phases=3 bus1=x_5007.1.2.3.0 kv=0.38 kw=0.3044758678282944 pf=0.9 status=variable model=1 CVRwatts=0.8 CVRvars=3.0 class=1 daily=333 conn=wye
New Load.carga_idseta_5008 phases=3 bus1=x_5008.1.2.3.0 kv=0.38 kw=0.6616054571607299 pf=0.9 status=variable model=1 CVRwatts=0.8 CVRvars=3.0 class=1 daily=333 conn=wye
New Load.carga_idseta_5011 phases=3 bus1=x_5011.1.2.3.0 kv=0.38 kw=1.1698283342876574 pf=0.9 status=variable model=1 CVRwatts=0.8 CVRvars=3.0 class=1 daily=333 conn=wye
New Load.carga_idseta_5009 phases=3 bus1=x_5009.1.2.3.0 kv=0.38 kw=18.05901315103357 pf=0.9 status=variable model=1 CVRwatts=0.8 CVRvars=3.0 class=1 daily=333 conn=wye
New Load.carga_idseta_2644 phases=3 bus1=x_2644.1.2.3.0 kv=0.38 kw=1.4193611883725 pf=0.9 status=variable model=1 CVRwatts=0.8 CVRvars=3.0 class=1 daily=333 conn=wye
New Load.carga_idseta_2922 phases=3 bus1=x_2922.1.2.3.0 kv=0.38 kw=0.6455804114855566 pf=0.9 status=variable model=1 CVRwatts=0.8 CVRvars=3.0 class=1 daily=333 conn=wye
New Load.carga_idseta_1973 phases=3 bus1=x_1973.1.2.3.0 kv=0.38 kw=28.277337739963095 pf=0.9 status=variable model=1 CVRwatts=0.8 CVRvars=3.0 class=1 daily=333 conn=wye
New Load.carga_idseta_2951 phases=3 bus1=x_2951.1.2.3.0 kv=0.38 kw=9.662942291672804 pf=0.9 status=variable model=1 CVRwatts=0.8 CVRvars=3.0 class=1 daily=333 conn=wye
New Load.carga_idseta_2993 phases=3 bus1=x_2993.1.2.3.0 kv=0.38 kw=2.6899183811898184 pf=0.9 status=variable model=1 CVRwatts=0.8 CVRvars=3.0 class=1 daily=333 conn=wye
New Load.carga_idseta_1357 phases=3 bus1=x_1357.1.2.3.0 kv=0.38 kw=1.4971971245090565 pf=0.9 status=variable model=1 CVRwatts=0.8 CVRvars=3.0 class=1 daily=333 conn=wye
New Load.carga_idseta_2548 phases=3 bus1=x_2548.1.2.3.0 kv=0.38 kw=2.779200778522928 pf=0.9 status=variable model=1 CVRwatts=0.8 CVRvars=3.0 class=1 daily=333 conn=wye
New Load.carga_idseta_1326 phases=3 bus1=x_1326.1.2.3.0 kv=0.38 kw=0.9637920327497136 pf=0.9 status=variable model=1 CVRwatts=0.8 CVRvars=3.0 class=1 daily=333 conn=wye
New Load.carga_idseta_1488 phases=3 bus1=x_1488.1.2.3.0 kv=0.38 kw=35.377188440503886 pf=0.9 status=variable model=1 CVRwatts=0.8 CVRvars=3.0 class=1 daily=333 conn=wye
New Load.carga_idseta_1231 phases=3 bus1=x_1231.1.2.3.0 kv=0.38 kw=6.825401221545107 pf=0.9 status=variable model=1 CVRwatts=0.8 CVRvars=3.0 class=1 daily=332 conn=wye
New Load.carga_idseta_401 phases=3 bus1=x_401.1.2.3.0 kv=0.38 kw=2.226809848890247 pf=0.9 status=variable model=1 CVRwatts=0.8 CVRvars=3.0 class=1 daily=332 conn=wye
New Load.carga_idseta_1236 phases=3 bus1=x_1236.1.2.3.0 kv=0.38 kw=17.484057113165367 pf=0.9 status=variable model=1 CVRwatts=0.8 CVRvars=3.0 class=1 daily=332 conn=wye
New Load.carga_idseta_967 phases=3 bus1=x_967.1.2.3.0 kv=0.38 kw=81.56942279624747 pf=0.9 status=variable model=1 CVRwatts=0.8 CVRvars=3.0 class=1 daily=332 conn=wye
New Load.carga_idseta_2998 phases=3 bus1=x_2998.1.2.3.0 kv=0.38 kw=5.5280158437136 pf=0.9 status=variable model=1 CVRwatts=0.8 CVRvars=3.0 class=1 daily=332 conn=wye
New Load.carga_idseta_1000 phases=3 bus1=x_1000.1.2.3.0 kv=0.38 kw=1.9593995944780096 pf=0.9 status=variable model=1 CVRwatts=0.8 CVRvars=3.0 class=1 daily=332 conn=wye
New Load.carga_idseta_2748 phases=3 bus1=x_2748.1.2.3.0 kv=0.38 kw=28.916579765194275 pf=0.9 status=variable model=1 CVRwatts=0.8 CVRvars=3.0 class=1 daily=335 conn=wye
New Load.carga_idseta_604 phases=3 bus1=x_604.1.2.3.0 kv=0.38 kw=55.84592167111455 pf=0.9 status=variable model=1 CVRwatts=0.8 CVRvars=3.0 class=1 daily=335 conn=wye
New Load.carga_idseta_835 phases=3 bus1=x_835.1.2.3.0 kv=0.38 kw=62.83708968467741 pf=0.9 status=variable model=1 CVRwatts=0.8 CVRvars=3.0 class=1 daily=335 conn=wye
New Load.carga_idseta_659 phases=3 bus1=x_659.1.2.3.0 kv=0.38 kw=8.230224757785852 pf=0.9 status=variable model=1 CVRwatts=0.8 CVRvars=3.0 class=1 daily=335 conn=wye
New Load.carga_idseta_47 phases=3 bus1=x_47.1.2.3.0 kv=0.38 kw=56.31762244744307 pf=0.9 status=variable model=1 CVRwatts=0.8 CVRvars=3.0 class=1 daily=334 conn=wye
New Load.carga_idseta_39 phases=3 bus1=x_39.1.2.3.0 kv=0.38 kw=12.40240341003785 pf=0.9 status=variable model=1 CVRwatts=0.8 CVRvars=3.0 class=1 daily=335 conn=wye
New Load.carga_idseta_2955 phases=3 bus1=x_2955.1.2.3.0 kv=0.38 kw=91.17335272277936 pf=0.9 status=variable model=1 CVRwatts=0.8 CVRvars=3.0 class=1 daily=333 conn=wye
New Load.carga_idseta_609 phases=3 bus1=x_609.1.2.3.0 kv=0.38 kw=14.76730851889621 pf=0.9 status=variable model=1 CVRwatts=0.8 CVRvars=3.0 class=1 daily=333 conn=wye
New Load.carga_idseta_2928 phases=3 bus1=x_2928.1.2.3.0 kv=0.38 kw=73.64424204637898 pf=0.9 status=variable model=1 CVRwatts=0.8 CVRvars=3.0 class=1 daily=333 conn=wye
New Load.carga_idseta_2298 phases=3 bus1=x_2298.1.2.3.0 kv=0.38 kw=0.7783593613655646 pf=0.9 status=variable model=1 CVRwatts=0.8 CVRvars=3.0 class=1 daily=333 conn=wye
New Load.carga_idseta_1289 phases=3 bus1=x_1289.1.2.3.0 kv=0.38 kw=58.402798211799166 pf=0.9 status=variable model=1 CVRwatts=0.8 CVRvars=3.0 class=1 daily=333 conn=wye
New Load.carga_idseta_2923 phases=3 bus1=x_2923.1.2.3.0 kv=0.38 kw=21.07310368744094 pf=0.9 status=variable model=1 CVRwatts=0.8 CVRvars=3.0 class=1 daily=332 conn=wye
New Load.carga_idseta_2958 phases=3 bus1=x_2958.1.2.3.0 kv=0.38 kw=10.98219577587919 pf=0.9 status=variable model=1 CVRwatts=0.8 CVRvars=3.0 class=1 daily=332 conn=wye
New Load.carga_idseta_2981 phases=3 bus1=x_2981.1.2.3.0 kv=0.38 kw=0.874509635416605 pf=0.9 status=variable model=1 CVRwatts=0.8 CVRvars=3.0 class=1 daily=333 conn=wye
New Load.carga_idseta_67 phases=3 bus1=x_67.1.2.3.0 kv=0.38 kw=9.487605399064012 pf=0.9 status=variable model=1 CVRwatts=0.8 CVRvars=3.0 class=1 daily=333 conn=wye
New Load.carga_idseta_5 phases=3 bus1=x_5.1.2.3.0 kv=0.38 kw=24.41676687927947 pf=0.9 status=variable model=1 CVRwatts=0.8 CVRvars=3.0 class=1 daily=333 conn=wye
New Load.carga_idseta_2991 phases=3 bus1=x_2991.1.2.3.0 kv=0.38 kw=1.3850218047828429 pf=0.9 status=variable model=1 CVRwatts=0.8 CVRvars=3.0 class=1 daily=333 conn=wye
New Load.carga_idseta_2933 phases=3 bus1=x_2933.1.2.3.0 kv=0.38 kw=159.89335725507382 pf=0.9 status=variable model=1 CVRwatts=0.8 CVRvars=3.0 class=1 daily=335 conn=wye
New Load.carga_idseta_66 phases=3 bus1=x_66.1.2.3.0 kv=0.38 kw=153.8844900269318 pf=0.9 status=variable model=1 CVRwatts=0.8 CVRvars=3.0 class=1 daily=335 conn=wye
New Load.carga_idseta_45 phases=3 bus1=x_45.1.2.3.0 kv=0.38 kw=14.42508576576488 pf=0.9 status=variable model=1 CVRwatts=0.8 CVRvars=3.0 class=1 daily=335 conn=wye
New Load.carga_idseta_43 phases=3 bus1=x_43.1.2.3.0 kv=0.38 kw=14.733666355039851 pf=0.9 status=variable model=1 CVRwatts=0.8 CVRvars=3.0 class=1 daily=335 conn=wye
New Load.carga_idseta_3005 phases=3 bus1=x_3005.1.2.3.0 kv=0.38 kw=0.48984989861950246 pf=0.9 status=variable model=1 CVRwatts=0.8 CVRvars=3.0 class=1 daily=332 conn=wye
New Load.carga_idseta_278 phases=3 bus1=x_278.1.2.3.0 kv=0.38 kw=22.91565615976045 pf=0.9 status=variable model=1 CVRwatts=0.8 CVRvars=3.0 class=1 daily=332 conn=wye
New Load.carga_idseta_3003 phases=3 bus1=x_3003.1.2.3.0 kv=0.38 kw=7.101200242861855 pf=0.9 status=variable model=1 CVRwatts=0.8 CVRvars=3.0 class=1 daily=335 conn=wye
New Load.carga_idseta_20 phases=3 bus1=x_20.1.2.3.0 kv=0.38 kw=51.80455159879562 pf=0.9 status=variable model=1 CVRwatts=0.8 CVRvars=3.0 class=1 daily=335 conn=wye
New Load.carga_idseta_2953 phases=3 bus1=x_2953.1.2.3.0 kv=0.38 kw=0.6847952803088383 pf=0.9 status=variable model=1 CVRwatts=0.8 CVRvars=3.0 class=1 daily=335 conn=wye
New Load.carga_idseta_25 phases=3 bus1=x_25.1.2.3.0 kv=0.38 kw=6.243473018618236 pf=0.9 status=variable model=1 CVRwatts=0.8 CVRvars=3.0 class=1 daily=335 conn=wye
New Load.carga_idseta_72 phases=3 bus1=x_72.1.2.3.0 kv=0.38 kw=104.04234793141204 pf=0.9 status=variable model=1 CVRwatts=0.8 CVRvars=3.0 class=1 daily=334 conn=wye
New Load.carga_idseta_71 phases=3 bus1=x_71.1.2.3.0 kv=0.38 kw=164.72267488700095 pf=0.9 status=variable model=1 CVRwatts=0.8 CVRvars=3.0 class=1 daily=334 conn=wye
New Load.carga_idseta_2897 phases=3 bus1=x_2897.1.2.3.0 kv=0.38 kw=0.5746123520669315 pf=0.9 status=variable model=1 CVRwatts=0.8 CVRvars=3.0 class=1 daily=333 conn=wye
New Load.carga_idseta_3004 phases=3 bus1=x_3004.1.2.3.0 kv=0.38 kw=20.87147734579369 pf=0.9 status=variable model=1 CVRwatts=0.8 CVRvars=3.0 class=1 daily=333 conn=wye
New Load.carga_idseta_645 phases=3 bus1=x_645.1.2.3.0 kv=0.38 kw=93.26668154640484 pf=0.9 status=variable model=1 CVRwatts=0.8 CVRvars=3.0 class=1 daily=333 conn=wye
New Load.carga_idseta_3021 phases=3 bus1=x_3021.1.2.3.0 kv=0.38 kw=64.76176599982443 pf=0.9 status=variable model=1 CVRwatts=0.8 CVRvars=3.0 class=1 daily=335 conn=wye
New Load.carga_idseta_207 phases=3 bus1=x_207.1.2.3.0 kv=0.38 kw=136.0861534359419 pf=0.9 status=variable model=1 CVRwatts=0.8 CVRvars=3.0 class=1 daily=335 conn=wye
New Load.carga_idseta_209 phases=3 bus1=x_209.1.2.3.0 kv=0.38 kw=150.9022488525004 pf=0.9 status=variable model=1 CVRwatts=0.8 CVRvars=3.0 class=1 daily=335 conn=wye
New Load.carga_idseta_236 phases=3 bus1=x_236.1.2.3.0 kv=0.38 kw=106.2006288814414 pf=0.9 status=variable model=1 CVRwatts=0.8 CVRvars=3.0 class=1 daily=332 conn=wye
New Load.carga_idseta_2666 phases=3 bus1=x_2666.1.2.3.0 kv=0.38 kw=111.59258592892384 pf=0.9 status=variable model=1 CVRwatts=0.8 CVRvars=3.0 class=1 daily=332 conn=wye
New Load.carga_idseta_439 phases=3 bus1=x_439.1.2.3.0 kv=0.38 kw=11.722944403059898 pf=0.9 status=variable model=1 CVRwatts=0.8 CVRvars=3.0 class=1 daily=332 conn=wye
New Load.carga_idseta_2931 phases=3 bus1=x_2931.1.2.3.0 kv=0.38 kw=25.24519111665875 pf=0.9 status=variable model=1 CVRwatts=0.8 CVRvars=3.0 class=1 daily=332 conn=wye
New Load.carga_idseta_1592 phases=3 bus1=x_1592.1.2.3.0 kv=0.38 kw=1.362128882389738 pf=0.9 status=variable model=1 CVRwatts=0.8 CVRvars=3.0 class=1 daily=333 conn=wye
New Load.carga_idseta_2478 phases=3 bus1=x_2478.1.2.3.0 kv=0.38 kw=58.36321634898148 pf=0.9 status=variable model=1 CVRwatts=0.8 CVRvars=3.0 class=1 daily=333 conn=wye
New Load.carga_idseta_37 phases=3 bus1=x_37.1.2.3.0 kv=0.38 kw=5.301879508193583 pf=0.9 status=variable model=1 CVRwatts=0.8 CVRvars=3.0 class=1 daily=335 conn=wye
New Load.carga_idseta_36 phases=3 bus1=x_36.1.2.3.0 kv=0.38 kw=17.808481706253733 pf=0.9 status=variable model=1 CVRwatts=0.8 CVRvars=3.0 class=1 daily=335 conn=wye
New Load.carga_idseta_2941 phases=3 bus1=x_2941.1.2.3.0 kv=0.38 kw=4.256721279450619 pf=0.9 status=variable model=1 CVRwatts=0.8 CVRvars=3.0 class=1 daily=335 conn=wye
New Load.carga_idseta_35 phases=3 bus1=x_35.1.2.3.0 kv=0.38 kw=15.186053953179682 pf=0.9 status=variable model=1 CVRwatts=0.8 CVRvars=3.0 class=1 daily=335 conn=wye
New Load.carga_idseta_34 phases=3 bus1=x_34.1.2.3.0 kv=0.38 kw=61.38384419444669 pf=0.9 status=variable model=1 CVRwatts=0.8 CVRvars=3.0 class=1 daily=335 conn=wye
New Load.carga_idseta_3035 phases=3 bus1=x_3035.1.2.3.0 kv=0.38 kw=22.357685867554054 pf=0.9 status=variable model=1 CVRwatts=0.8 CVRvars=3.0 class=1 daily=333 conn=wye
New Load.carga_idseta_33 phases=3 bus1=x_33.1.2.3.0 kv=0.38 kw=16.9212068338042 pf=0.9 status=variable model=1 CVRwatts=0.8 CVRvars=3.0 class=1 daily=335 conn=wye
New Load.carga_idseta_2935 phases=3 bus1=x_2935.1.2.3.0 kv=0.38 kw=0.6974766743886315 pf=0.9 status=variable model=1 CVRwatts=0.8 CVRvars=3.0 class=1 daily=335 conn=wye
New Load.carga_idseta_49 phases=3 bus1=x_49.1.2.3.0 kv=0.38 kw=166.5310025181304 pf=0.9 status=variable model=1 CVRwatts=0.8 CVRvars=3.0 class=1 daily=334 conn=wye
New Load.carga_idseta_48 phases=3 bus1=x_48.1.2.3.0 kv=0.38 kw=122.82141522847812 pf=0.9 status=variable model=1 CVRwatts=0.8 CVRvars=3.0 class=1 daily=335 conn=wye
New Load.carga_idseta_98 phases=3 bus1=x_98.1.2.3.0 kv=0.38 kw=58.09393126398271 pf=0.9 status=variable model=1 CVRwatts=0.8 CVRvars=3.0 class=1 daily=335 conn=wye
New Load.carga_idseta_38 phases=3 bus1=x_38.1.2.3.0 kv=0.38 kw=19.425782164563376 pf=0.9 status=variable model=1 CVRwatts=0.8 CVRvars=3.0 class=1 daily=335 conn=wye
New Load.carga_idseta_24 phases=3 bus1=x_24.1.2.3.0 kv=0.38 kw=84.80563931183691 pf=0.9 status=variable model=1 CVRwatts=0.8 CVRvars=3.0 class=1 daily=335 conn=wye
New Load.carga_idseta_3000 phases=3 bus1=x_3000.1.2.3.0 kv=0.38 kw=13.349280834662416 pf=0.9 status=variable model=1 CVRwatts=0.8 CVRvars=3.0 class=1 daily=335 conn=wye
New Load.carga_idseta_23 phases=3 bus1=x_23.1.2.3.0 kv=0.38 kw=81.75525677988342 pf=0.9 status=variable model=1 CVRwatts=0.8 CVRvars=3.0 class=1 daily=335 conn=wye
New Load.carga_idseta_3018 phases=3 bus1=x_3018.1.2.3.0 kv=0.38 kw=4.062273236893788 pf=0.9 status=variable model=1 CVRwatts=0.8 CVRvars=3.0 class=1 daily=335 conn=wye
New Load.carga_idseta_22 phases=3 bus1=x_22.1.2.3.0 kv=0.38 kw=17.684204044271755 pf=0.9 status=variable model=1 CVRwatts=0.8 CVRvars=3.0 class=1 daily=335 conn=wye
New Load.carga_idseta_3015 phases=3 bus1=x_3015.1.2.3.0 kv=0.38 kw=7.672243418274949 pf=0.9 status=variable model=1 CVRwatts=0.8 CVRvars=3.0 class=1 daily=335 conn=wye
New Load.carga_idseta_237 phases=3 bus1=x_237.1.2.3.0 kv=0.38 kw=51.88803744315427 pf=0.9 status=variable model=1 CVRwatts=0.8 CVRvars=3.0 class=1 daily=335 conn=wye
New Load.carga_idseta_3024 phases=3 bus1=x_3024.1.2.3.0 kv=0.38 kw=9.56146380406359 pf=0.9 status=variable model=1 CVRwatts=0.8 CVRvars=3.0 class=1 daily=332 conn=wye
New Load.carga_idseta_637 phases=3 bus1=x_637.1.2.3.0 kv=0.38 kw=11.190083293829902 pf=0.9 status=variable model=1 CVRwatts=0.8 CVRvars=3.0 class=1 daily=332 conn=wye
New Load.carga_idseta_781 phases=3 bus1=x_781.1.2.3.0 kv=0.38 kw=14.442208718323284 pf=0.9 status=variable model=1 CVRwatts=0.8 CVRvars=3.0 class=1 daily=332 conn=wye
New Load.carga_idseta_3023 phases=3 bus1=x_3023.1.2.3.0 kv=0.38 kw=0.2532882402617916 pf=0.9 status=variable model=1 CVRwatts=0.8 CVRvars=3.0 class=1 daily=332 conn=wye
...
